CoresoETL/UCT_Source/20221102_1230_FO3_SK0.UCT
##C 2007.05.01
SK FORECAST MODEL FOR: 02-11-22 12:30
SCHEDULED  IMPORT:  226 MW
===============================================================
E-mail: dataexchange@sepsas.sk
##N
##ZSK
QBOSA_1               0 0    417     146     -18       0       0       0       0       0       0
QBYST_1               0 0    417      67      -4       0       0       0       0       0       0
QCVAH_1               0 0    421       0       0       0       0       0       0       0       0
QEMOR31               0 0    416       0       0       0       0       0       0       0       0
QEMOR41               0 0    416       0       0       0       0       0       0       0       0
QEBOR31               0 2    416      34      10    -485      81    -150    -520     140    -160
QEBOR41               0 2    416      34      10    -495      17    -150    -520     140    -160
QEMOR11               0 3    416      30       9    -493      76    -150    -520     140    -160
QEMOR21               0 2    416      30       9    -493     103    -150    -520     140    -160
QEVO1_21              0 2    237       6       2     -45      62     -40    -440      80    -120
QEVO1_22              0 0    237       0       0       0       0       0       0       0       0
QEVO2_11              0 0    419       0       0       0       0       0       0       0       0
QEVO2_12              0 0    419       0       0       0       0       0       0       0       0
QGABC_12              0 2    416      22      -9     -75      15     -40    -540     120    -180
QHZDA_1               0 0    418      36      31       0       0       0       0       0       0
QKOSI_1               0 0    416      60      27       0       0       0       0       0       0
QKRIZ_1               0 0    416     223     164       0       0       0       0       0       0
QKRIZ_21              0 0    239       0       0       0       0       0       0       0       0
QGABC_1               0 0    416       0       0       0       0       0       0       0       0
QLEME_1               0 0    416     166     170       0       0       0       0       0       0
QLEME_12              0 0    417       0       0       0       0       0       0       0       0
QLEME_21              0 0    240       0       0       0       0       0       0       0       0
QLEVI_12              0 0    416      75       7       0       0       0       0       0       0
QLMAR_1               0 0    421     125      -8       0       0       0       0       0       0
QMALZ_1               0 0    416       0       0       0       0       0       0       0       0
QMOLD_1               0 0    416      50      50       0       0       0       0       0       0
QPBIS_1               0 0    416     207     -61       0       0       0       0       0       0
QPBYS_2               0 0    238       0       0       0       0       0       0       0       0
QRSOB_1               0 0    412     105      72       0       0       0       0       0       0
QSALA_2               0 0    239      26       1       0       0       0       0       0       0
QSENI_2               0 0    237      77       0       0       0       0       0       0       0
QSIRO_2               0 0    244       3     -15       0       0       0       0       0       0
QSPNV_1               0 0    419     108      -3       0       0       0       0       0       0
QSTUP_1               0 0    412     181     110       0       0       0       0       0       0
QSUCA_1               0 0    419       0       0       0       0       0       0       0       0
QSUCA_2               0 0    243       0       0       0       0       0       0       0       0
QVARI_1               0 0    419       0       0       0       0       0       0       0       0
QVDUR_11              0 0    416       0       0       0       0       0       0       0       0
QVDUR_12              0 0    416       0       0       0       0       0       0       0       0
QVKAP_1               0 0    419       0       0       0       0       0       0       0       0
QVOLA_1               0 0    419      95       3       0       0       0       0       0       0
QLEME_7               0 0     28       0       0       0       0       0       0       0       0
QMLEME5               0 0    115       0       0       0       0       0       0       0       0
QMSUCA5               0 0    129      18     -10       0       0       0       0       0       0
QVARI_12              0 0    419       0       0       0       0       0       0       0       0
QSUCA_12              0 0    419       0       0       0       0       0       0       0       0
QMEDZ_1               0 0    421     121      -9       0       0       0       0       0       0
QLEVI_1               0 0    416      60     -25       0       0       0       0       0       0
QBYST_5               0 0    126       0       0       0       0       0       0       0       0
QBYST_52              0 0    126       0       0       0       0       0       0       0       0
QVARI_5               0 0    126       0       0       0       0       0       0       0       0
QPBYS_5               0 0    125       0       0       0       0       0       0       0       0
QPBYS_52              0 0    125      23       0       0       0       0       0       0       0
QHRIC_5               0 0    126     153      -3       0       0       0       0       0       0
QVARI_52              0 0    129       0       0       0       0       0       0       0       0
##ZXX
XGY_GA11              0 0            321      -9       0       0       0       0       0       0
XGO_LE11              0 0            543     -25       0       0       0       0       0       0
XNO_VA11              0 0           -601     207       0       0       0       0       0       0
XSO_KR11              0 0           -203      37       0       0       0       0       0       0
XSO_ST11              0 0           -363      25       0       0       0       0       0       0
XLI_PB21              0 0            -70      37       0       0       0       0       0       0
XSO_SE21              0 0            -71      26       0       0       0       0       0       0
XKR_LE11              0 0           -400      10       0       0       0       0       0       0
XKR_LE12              0 0           -401      11       0       0       0       0       0       0
XVK_MU11              0 0              0       0       0       0       0       0       0       0
XGN_VD11              0 0            299     -48       0       0       0       0       0       0
XGN_GA11              0 0            299     -22       0       0       0       0       0       0
XSA_RI11              0 0            436      31       0       0       0       0       0       0
##L
QGABC_12 XGY_GA11 1 0  0.565  6.709   58.006   2000 448         
QKRIZ_1  XSO_KR11 1 0  1.789 19.382  234.115   2000 424         
QLEME_1  XKR_LE11 1 0  1.739 17.763  255.330   2000 477         
QLEME_12 XKR_LE12 2 0  1.735 17.752  255.330   2000 478         
QLEVI_1  XGO_LE11 1 0  1.247 14.034  155.862   2000 449         
QPBYS_2  XLI_PB21 1 0  4.060 20.700  124.050    835 270         
QSENI_2  XSO_SE21 1 0  3.030 16.950  124.050    900 280         
QSTUP_1  XSO_ST11 1 0  1.165 14.897  210.455   2000 497         
QVKAP_1  XVK_MU11 1 8  0.829  8.703   87.800   1980 440         
QVARI_1  XNO_VA11 1 0  1.133 11.261  139.166   2000 404         
QVDUR_11 XGN_VD11 1 0  1.111 13.231  203.533   2000 480         
QGABC_1  XGN_GA11 1 0  0.388  4.621   70.537   2000 481         
QRSOB_1  XSA_RI11 1 0  0.694  8.072   90.029   2000 447         
QBOSA_1  QVARI_1  1 0  2.305 28.255  396.323   2000 495         
QKRIZ_1  QBYST_1  1 0  1.776 22.272  324.080   2000 483         
QPBYS_2  QSUCA_2  1 0 10.605 47.697  133.233    665 271         
QCVAH_1  QLMAR_1  1 0  1.040 10.845  145.858   1200 045         
QVDUR_11 QEMOR31  1 0  0.162  2.063   28.651   1500 048         
QVDUR_12 QEMOR41  1 8  0.162  2.042   28.066   1500 049         
QEBOR31  QBOSA_1  1 0  0.940 11.506  165.716   1200 043         
QEBOR41  QKRIZ_1  1 0  0.459  5.407   83.431   1200 044         
QEVO1_21 QLEME_21 1 0  4.984 32.974  221.490    760 071         
QEVO1_21 QEVO1_22 1 2  0.000  0.000    0.000   2000 SPE         
QGABC_1  QPBIS_1  1 0  0.965 12.188  173.697   2280 429         
QHZDA_1  QSUCA_1  1 0  1.533 19.490  275.639   2000 493         
QKOSI_1  QMOLD_1  1 0  0.265  3.327   48.407   2355 489         
QKRIZ_1  QPBIS_1  1 0  1.255 13.907  172.151   2010 439         
QGABC_1  QGABC_12 1 2  0.000  0.000    0.000   2000 SPG         
QKRIZ_21 QSENI_2  1 0  3.324 21.312  138.031    785 283         
QLEME_21 QSUCA_2  1 0 15.389 78.860  465.282    665 273         
QLEME_21 QEVO1_22 1 0  4.984 32.974  221.490    815 072         
QKOSI_1  QLEME_1  1 0  0.678  7.953  121.900   2000 488         
QLEME_12 QMOLD_1  1 0  0.828  9.706  148.759   2000 487         
QLEME_1  QSPNV_1  1 0  1.722 17.659  222.225   1995 408         
QLEME_12 QVOLA_1  1 0  2.308 24.226  290.504   1570 409         
QLEME_1  QLEME_12 1 2  0.000  0.000    0.000   2000 SPL         
QLMAR_1  QSPNV_1  1 0  2.536 25.758  327.994   1500 407         
QLMAR_1  QVARI_1  1 0  1.668 18.467  251.284   2000 406         
QLMAR_1  QMEDZ_1  1 0  1.222 15.129  211.348   2000 461         
QMALZ_1  QKRIZ_1  1 0  0.386  4.033   54.324   1200 050         
QMOLD_1  QRSOB_1  1 0  2.653 28.855  350.665   2010 427         
QMOLD_1  QVKAP_1  1 0  2.583 27.946  339.120   2000 428         
QPBIS_1  QSTUP_1  1 0  1.041 12.016  191.419   2000 498         
QSUCA_1  QVARI_1  1 0  0.525  5.486   68.864   2000 405         
QSALA_2  QKRIZ_21 1 0  1.822 11.488   75.022    785 279         
QSIRO_2  QSUCA_2  1 0  2.442 14.996  105.562    360 281         
QSIRO_2  QSUCA_2  2 0  2.442 14.996  105.562    360 282         
QVDUR_11 QVDUR_12 1 2  0.000  0.000    0.000   2000 SPV         
QVDUR_11 QEMOR11  1 0  0.153  1.956   27.161   1500 046         
QVDUR_11 QHZDA_1  1 0  1.393 17.526  253.198   2000 492         
QVDUR_11 QLEVI_1  1 0  0.411  4.463   55.615   2000 490         
QVDUR_12 QEMOR21  1 0  0.156  1.985   27.562   1500 047         
QVDUR_12 QKRIZ_1  1 0  1.809 19.632  239.032   2100 425         
QVDUR_12 QLEVI_12 1 0  0.380  4.620   71.231   2000 491         
QLEVI_12 QRSOB_1  1 0  3.339 36.258  438.496   2000 426         
QVKAP_1  QEVO2_11 1 0  0.153  1.640   19.858    720 041         
QVKAP_1  QEVO2_12 1 0  0.148  1.590   19.261    240 042         
QVARI_1  QVARI_12 1 2  0.000  0.000    0.000   2000 SPX         
QSUCA_1  QSUCA_12 1 2  0.000  0.000    0.000   2000 SPS         
QMEDZ_1  QSUCA_1  1 0  1.408 17.585  245.837   2000 494         
QVOLA_1  QVKAP_1  1 0  1.420 15.250  191.911   1570 410         
QVDUR_11 QGABC_12 1 0  2.053 25.744  374.598   2280 479         
QBOSA_1  QKRIZ_1  1 0  1.381 15.912  265.040   2000 496         
QLEVI_1  QLEVI_12 1 2  0.000  0.000    0.000   2000 SPY         
QKRIZ_1  QBYST_1  2 0  1.776 22.272  324.080   2000 484         
QHRIC_5  QVARI_5  1 1  0.572  1.849  345.089   1500 E01         
QPBYS_5  QPBYS_52 1 7  0.000  0.000    0.000   2000 SPB         
QPBYS_5  QHRIC_5  1 1  1.866 15.132  307.879   1500 E02         
QVARI_52 QMSUCA5  1 1  1.662  4.057  109.420   1500 E03         
QVARI_5  QVARI_52 1 7  0.000  0.000    0.000   2000 SPV         
##T
QLEME_1  QMLEME5  1 1  400.  110.  500.   0.03 -79.33     -5.8   0.03    722         LEME
QLEME_21 QMLEME5  1 1  231.  110.  500.   0.03  40.39     -5.8   0.03   1250        LEMER
QLEME_7  QMLEME5  1 1   27.  110.  180.   0.03   2.99     -5.8   0.03   3060         LEME
QSUCA_1  QSUCA_2  1 0  400.  231.  500.   0.50  42.14    -1.07   0.65    722    T401 SUCA
QSUCA_2  QMSUCA5  1 0  230.  121.  200.   0.45  28.59    -1.74   0.82    525    T201 SUCA
QKRIZ_1  QKRIZ_21 1 0  400.  231.  400.  0.486  39.20   -12.43   1.31    578        KRIZR
QBYST_1  QBYST_5  1 0  400.  121.  250.   1.24  79.22    -0.19   0.46    360    T402 BYST
QBYST_1  QBYST_52 1 0  400.  121.  250.   1.24  79.22    -0.19   0.46    360    T401 BYST
QVARI_1  QVARI_5  1 0  400.  121.  330. 1.4337 62.092   -10.29 0.6787    476    T401 VARI
QPBYS_2  QPBYS_5  1 0  231.  121.  200. 0.9298 22.525   -18.65  1.874    500    T201 PBYS
QPBYS_2  QPBYS_52 1 0  231.  121.  200. 0.9005 22.393  -18.654  1.799    500    T202 PBYS
##R
QKRIZ_1  QKRIZ_21 1 0.556 10   0
QSUCA_2  QMSUCA5  1 1.098  8  -3
QLEME_21 QMLEME5  1 1.098 10   9
QBYST_1  QBYST_52 1 1.500  8  -6
QVARI_1  QVARI_5  1 1.500  9  -5
QPBYS_2  QPBYS_5  1 1.000 11  -5
QPBYS_2  QPBYS_52 1 1.000 11  -4
QBYST_1  QBYST_5  1 1.098  8  -6
##C
Fulfilled criteria N-1.
##C
